
 *****************************************
 *** Specfem3D MPI database generation ***
 *****************************************

 Running Git package version of the code: v2.0.2-3027-g75e1785c
 which is Git commit 75e1785c912b996ac438deaa5b88137ac7705b0a
 dating From Date:   Fri Oct 18 16:45:36 2019 -0400

 This is process            0
 There are          120  MPI processes
 Processes are numbered from 0 to          119

 There is a total of          120  slices

 NGLLX =            5
 NGLLY =            5
 NGLLZ =            5

 Shape functions defined by NGNOD =            8  control nodes
 Surface shape functions defined by NGNOD2D =            4  control nodes
 Beware! Curvature (i.e. HEX27 elements) is not handled by our internal mesher

 velocity model:   tomo


 using UTM projection in region          -60

 incorporating attenuation using            3  standard linear solids
   not using attenuation from Olsen et al.

 no anisotropy

 no oceans

 incorporating Stacey absorbing conditions

 using a CMTSOLUTION source
   with a Gaussian source time function


 ************************************
 reading partition files in the model
 ************************************

 external mesh points :      1094040
 defined materials    :            3
 undefined materials  :            0
 total number of spectral elements:       928800
 absorbing boundaries: 
   xmin,xmax :         5976        5976
   ymin,ymax :         4980        4980
   bottom,top:         4320       69120

   total number of C-PML elements in the global mesh:            0

 number of MPI partition interfaces:          832

   minimum memory used so far     :    26.5464325     MB per process
   minimum total memory requested :    124.125603     MB per process

 create regions:

   ...allocating arrays 
     NGLLX   =            5
     NGLLY   =            5
     NGLLZ   =            5
     NGNOD   =            8
     NGNOD2D =            4

     master process setup: 
     nspec           =         7740

     separating regular/irregular element shapes
     nspec regular   =            0
     nspec irregular =         7740

     absorbing boundary faces:
       num_abs_boundary_faces =         1032

     free surface faces:
       num_free_surface_faces =          576


 File DATA/Par_file_faults not found: assuming that there are no faults


   ...setting up jacobian 

   ...indexing global points

   ...preparing MPI interfaces 
      total MPI interface points:      3647472
      total assembled MPI interface points:     3507288

   ...setting up absorbing boundaries
      boundary xmin         498
      boundary xmax           0
      boundary ymin         498
      boundary ymax           0
      boundary bottom          36
      boundary top         576
      absorbing boundary:
      total number of free faces =        69120
      total number of faces =        26232

   ...setting up mesh surface

   ...determining velocity model

      number of tomographic models       =            3
      maximum number of data records     =     22291962
      size of required tomography arrays =    1020.44507     MB per process

      material id:           -1
      file       : DATA/tomo_files/tomography_model_mantle.xyz
      data format: #x #y #z #vp #vs #density #Q_p #Q_s
      number of grid points = NX*NY*NZ:     1504500

      material id:           -2
      file       : DATA/tomo_files/tomography_model_crust.xyz
      data format: #x #y #z #vp #vs #density #Q_p #Q_s
      number of grid points = NX*NY*NZ:     5854464

      material id:           -3
      file       : DATA/tomo_files/tomography_model_shallow.xyz
      data format: #x #y #z #vp #vs #density #Q_p #Q_s
      number of grid points = NX*NY*NZ:    22291962

               10  % time remaining:   2.5512406456873471E-007 s
               20  % time remaining:   2.2799795233654097E-007 s
               30  % time remaining:   2.0573151613388369E-007 s
               40  % time remaining:   1.7740808197090662E-007 s
               50  % time remaining:   1.7658845196129162E-007 s
               60  % time remaining:   1.3875580627707913E-007 s
               70  % time remaining:   1.0279324710728928E-007 s
               80  % time remaining:   6.8014302965157224E-008 s
               90  % time remaining:   3.3815236882725431E-008 s
              100  % time remaining:   0.0000000000000000      s

   ...detecting acoustic-elastic-poroelastic surfaces 
      total acoustic elements   :           0
      total elastic elements    :      928800
      total poroelastic elements:           0


   ...element inner/outer separation 
      for overlapping of communications with calculations:
      percentage of   edge elements    12.9457397     %
      percentage of volume elements    87.0542603     %

   ...element mesh coloring 
      use coloring =  F

   ...external binary models 
      no external binary model used 

   ...creating mass matrix 

   ...saving databases
      saving mesh files for AVS, OpenDX, Paraview
      saving additonal mesh files with surface/coupling points

   ...checking mesh resolution
 Mesh resolution:

 ********
 minimum and maximum number of elements
 and points in the CUBIT + SCOTCH mesh:

 NSPEC_global_min =         7740
 NSPEC_global_max =         7740
 NSPEC_global_max / NSPEC_global_min imbalance =    1.00000000      =    0.00000000      %
 NSPEC_global_sum =       928800

 NGLOB_global_min =       516489
 NGLOB_global_max =       516489
 NGLOB_global_max / NGLOB_global_min imbalance =    1.00000000      =    0.00000000      %
 NGLOB_global_sum =     61978680

 If you have elements of a single type (all acoustic, all elastic, all poroelastic, and without CPML)
 in the whole mesh, then there should be no significant imbalance in the above numbers.
 Otherwise, it is normal to have imbalance in elements and points because the domain decomposer
 compensates for the different cost of different elements by partitioning them unevenly among processes.
 ********


 ********
 Model: P velocity min,max =    2140.18286       9317.33008    
 Model: S velocity min,max =    1204.31763       5383.92090    

 Model: Poisson's ratio min,max =   0.171699882      0.318180799    
 ********

 *********************************************
 *** Verification of simulation parameters ***
 *********************************************

 *** Xmin and Xmax of the model =    171311.859       633468.312    
 *** Ymin and Ymax of the model =    5286952.00       5904085.00    
 *** Zmin and Zmax of the model =   -400000.000       2642.16504    

 *** Max GLL point distance =    6677.46875    
 *** Min GLL point distance =    113.886230    
 *** Max/min ratio =    58.6328011    

 *** Max element size =    20400.0000    
 *** Min element size =    659.549561    
 *** Max/min ratio =    30.9302006    

 *** Minimum period resolved =    6.10951042    
 *** Maximum suggested time step =    9.52508859E-03

 Elapsed time for checking mesh resolution in seconds =    1.2597084045410156E-002
 saving VTK files for Courant number and minimum period


   ...saving attenuation databases

 Attenuation:
   The code uses a constant Q quality factor, but approximated
   based on a series of Zener standard linear solids (SLS).

   Approximation is performed in the following frequency band:
   Reference frequency requested by the user (Hz):  0.300000012      period (s):   3.33333325    

   The following values are computed automatically by the code
   based on the estimated maximum frequency resolution of your mesh
   and can thus vary from what you have requested.

   Frequency band        min/max (Hz):   2.94007501E-03  0.165332571    
   Period band           min/max (s) :   6.04841518       340.127380    
   Logarithmic central frequency (Hz):   2.20474526E-02  period (s):   45.3567162    

   Using full attenuation with both Q_kappa and Q_mu.

   Q_mu min/max           :    59.8196220       2706.24243    
   Q_kappa min/max        :    31.7756538       9000.00000    


 mesh regions done

 min and max of elevation (i.e. height of the upper surface of the mesh) included in mesh in m is   -3383.1516609783107          2642.1650800943726     


 Repartition of elements:
 -----------------------

 total number of elements in mesh slice 0:         7740
 total number of   regular elements in mesh slice 0:            0
 total number of irregular elements in mesh slice 0:         7740
 total number of points in mesh slice 0:       516489

 total number of elements in entire mesh:       928800
 approximate total number of points in entire mesh (with duplicates on MPI edges):    61978680.000000000     
 approximate total number of DOFs in entire mesh (with duplicates on MPI edges):    185936040.00000000     

 total number of time steps in the solver will be:        24000

 using single precision for the calculations

 smallest and largest possible floating-point numbers are:    1.17549435E-38   3.40282347E+38


 Elapsed time for mesh generation and buffer creation in seconds =    790.67196083068848     
 End of mesh generation

 done

